Circuit: * C:\users\enriqueantunano\ltspice_files\hw2_p3g_eantunano.asc

WARNING: Node N010 is floating.

.OP point found by inspection.

Date: Sat May 10 21:52:59 2025
Total elapsed time: 0.142 seconds.

tnom = 27
temp = 27
method = modified trap
totiter = 11560
traniter = 11560
tranpoints = 5748
accept = 3976
rejected = 1772
matrix size = 17
fillins = 19
solver = Normal
Matrix Compiler1:      89 opcodes  0.3/[0.1]/0.2
Matrix Compiler2: off  [0.1]/0.1/0.2

