Circuit: * C:\users\enriqueantunano\ltspice_files\hw2_p4b_eantunano.asc


Date: Sat May 10 21:51:11 2025
Total elapsed time: 0.011 seconds.

tnom = 27
temp = 27
method = trap
totiter = 0
traniter = 0
tranpoints = 0
accept = 0
rejected = 0
matrix size = 14
fillins = 6
solver = Normal

