Circuit: * C:\users\enriqueantunano\ltspice_files\hw2_p2d_eantunano.asc

.OP point found by inspection.

Date: Sat May 03 12:59:10 2025
Total elapsed time: 0.157 seconds.

tnom = 27
temp = 27
method = modified trap
totiter = 40106
traniter = 40106
tranpoints = 20054
accept = 20054
rejected = 0
matrix size = 8
fillins = 3
solver = Normal
Matrix Compiler1:      21 opcodes  0.1/[0.1]/0.1
Matrix Compiler2: 600 bytes object code size  0.1/0.1/[0.0]

