Circuit: * C:\users\enriqueantunano\ltspice_files\hw3_p3a_eantunano.asc

Direct Newton iteration for .op point succeeded.

Date: Wed May 21 21:42:19 2025
Total elapsed time: 0.599 seconds.

tnom = 27
temp = 27
method = modified trap
totiter = 40064
traniter = 40034
tranpoints = 20018
accept = 20018
rejected = 0
matrix size = 23
fillins = 10
solver = Normal
Matrix Compiler1: 1.60 KB object code size  0.4/0.2/[0.2]
Matrix Compiler2: off  [0.2]/0.2/0.3

