Circuit: * C:\users\enriqueantunano\ltspice_files\hw3_p3c_vcm10v_eantunano.asc

Direct Newton iteration for .op point succeeded.

Date: Wed May 21 22:34:41 2025
Total elapsed time: 0.530 seconds.

tnom = 27
temp = 27
method = modified trap
totiter = 40064
traniter = 40034
tranpoints = 20018
accept = 20018
rejected = 0
matrix size = 23
fillins = 10
solver = Normal
Matrix Compiler1: 1.60 KB object code size  0.5/0.2/[0.2]
Matrix Compiler2:     186 opcodes  0.2/[0.2]/0.3

