Circuit: * C:\users\enriqueantunano\ltspice_files\hw1_p5_eantunano.asc

.OP point found by inspection.

Date: Sun Apr 27 18:49:41 2025
Total elapsed time: 0.068 seconds.

tnom = 27
temp = 27
method = modified trap
totiter = 20104
traniter = 20104
tranpoints = 10053
accept = 10053
rejected = 0
matrix size = 8
fillins = 3
solver = Normal
Matrix Compiler1:      21 opcodes  0.1/[0.1]/0.1
Matrix Compiler2: 600 bytes object code size  0.1/0.1/[0.1]

