Circuit: * C:\users\enriqueantunano\ltspice_files\hw1_p3a_eantunano.asc

Error on line 3 : c1 eut rf_meas_rcvr 0.1 uf
	 Unknown parameter "uf"
Error on line 4 : c2 ac_pwr_60hz 0 1.0 uf
	 Unknown parameter "uf"
Error on line 5 : l1 ac_pwr_60hz eut 50 uh
	 Unknown parameter "uh"
Error on line 7 : v1 eut 0 ac ac1
	 Unknown parameter "ac1"

Date: Sun Apr 27 12:10:48 2025
Total elapsed time: 0.015 seconds.

tnom = 27
temp = 27
method = trap
totiter = 0
traniter = 0
tranpoints = 0
accept = 0
rejected = 0
matrix size = 4
fillins = 1
solver = Normal

