Circuit: * C:\users\enriqueantunano\ltspice_files\hw1_p3c_eantunano.asc

Error on line 3 : c1 eut rf_meas_rcvr 0.1 uf
	 Unknown parameter "uf"
Error on line 4 : c2 ac_pwr_60hz 0 1.0 uf
	 Unknown parameter "uf"
Error on line 5 : l1 ac_pwr_60hz eut 50 uh
	 Unknown parameter "uh"
.OP point found by inspection.

Date: Sun Apr 27 12:14:07 2025
Total elapsed time: 0.025 seconds.

tnom = 27
temp = 27
method = modified trap
totiter = 2162
traniter = 2162
tranpoints = 1082
accept = 1052
rejected = 30
matrix size = 4
fillins = 0
solver = Normal
Matrix Compiler1: 136 bytes object code size  0.0/0.1/[0.0]
Matrix Compiler2: off  [0.0]/0.1/0.1

